Version 4
SHEET 1 2772 1388
WIRE 208 -240 160 -240
WIRE 640 -240 272 -240
WIRE 672 -240 640 -240
WIRE 768 -240 736 -240
WIRE 384 -144 336 -144
WIRE 480 -144 448 -144
WIRE 544 -144 480 -144
WIRE 640 -144 640 -240
WIRE 640 -144 608 -144
WIRE 672 -144 640 -144
WIRE 768 -144 768 -240
WIRE 768 -144 736 -144
WIRE 1120 -144 1088 -144
WIRE 1248 -144 1184 -144
WIRE 480 -128 480 -144
WIRE -272 -96 -272 -128
WIRE -32 -96 -32 -128
WIRE 80 -48 0 -48
WIRE 160 -48 160 -240
WIRE 160 -48 80 -48
WIRE 208 -48 160 -48
WIRE 336 -48 336 -144
WIRE 336 -48 272 -48
WIRE 384 -48 336 -48
WIRE 480 -48 480 -64
WIRE 480 -48 448 -48
WIRE 640 -32 640 -144
WIRE 672 -32 640 -32
WIRE 768 -16 768 -144
WIRE 768 -16 736 -16
WIRE 816 -16 768 -16
WIRE 928 -16 880 -16
WIRE 976 -16 928 -16
WIRE 1088 -16 1088 -144
WIRE 1088 -16 1040 -16
WIRE 1120 -16 1088 -16
WIRE 0 0 0 -48
WIRE 672 0 640 0
WIRE 1248 0 1248 -144
WIRE 1248 0 1184 0
WIRE 1280 0 1248 0
WIRE 1328 0 1280 0
WIRE 928 16 928 -16
WIRE 1120 16 1088 16
WIRE 640 48 640 0
WIRE 1088 64 1088 16
WIRE 336 80 336 -48
WIRE 384 80 336 80
WIRE 480 96 480 -48
WIRE 480 96 448 96
WIRE 384 112 352 112
WIRE 928 112 928 80
WIRE -272 128 -272 80
WIRE -176 128 -176 80
WIRE 0 128 0 80
WIRE 352 160 352 112
FLAG 352 160 0
FLAG 640 48 0
FLAG 0 128 0
FLAG -176 128 0
FLAG -272 128 0
FLAG 928 112 0
FLAG 1088 64 0
FLAG -176 0 +12V
FLAG -272 0 -12V
FLAG 416 128 -12V
FLAG 704 16 -12V
FLAG 1152 32 -12V
FLAG 416 64 +12V
FLAG 704 -48 +12V
FLAG 1152 -32 +12V
FLAG -272 -208 amplitude
FLAG -272 -96 0
FLAG -32 -96 0
FLAG -32 -208 program
FLAG 80 -48 IN
FLAG 1280 0 ENV
SYMBOL res2 272 -64 R90
WINDOW 0 0 32 VBottom 2
WINDOW 3 32 32 VTop 2
SYMATTR InstName R1
SYMATTR Value 10k
SYMBOL res2 448 -160 R90
WINDOW 0 0 32 VBottom 2
WINDOW 3 32 32 VTop 2
SYMATTR InstName R2
SYMATTR Value 10k
SYMBOL res2 272 -256 R90
WINDOW 0 0 32 VBottom 2
WINDOW 3 32 32 VTop 2
SYMATTR InstName R3
SYMATTR Value 10k
SYMBOL res2 608 -160 R90
WINDOW 0 0 32 VBottom 2
WINDOW 3 32 32 VTop 2
SYMATTR InstName R4
SYMATTR Value 10k
SYMBOL res2 736 -160 R90
WINDOW 0 0 32 VBottom 2
WINDOW 3 32 32 VTop 2
SYMATTR InstName R5
SYMATTR Value 10k
SYMBOL res2 880 -32 R90
WINDOW 0 0 32 VBottom 2
WINDOW 3 32 32 VTop 2
SYMATTR InstName R6
SYMATTR Value 10k
SYMBOL res2 1040 -32 R90
WINDOW 0 0 32 VBottom 2
WINDOW 3 32 32 VTop 2
SYMATTR InstName R7
SYMATTR Value 100k
SYMBOL res2 1184 -160 R90
WINDOW 0 0 32 VBottom 2
WINDOW 3 32 32 VTop 2
SYMATTR InstName R8
SYMATTR Value 100k
SYMBOL cap 736 -256 R90
WINDOW 0 0 32 VBottom 2
WINDOW 3 32 32 VTop 2
SYMATTR InstName C1
SYMATTR Value 680n
SYMBOL cap 944 80 R180
WINDOW 0 24 56 Left 2
WINDOW 3 24 8 Left 2
SYMATTR InstName C2
SYMATTR Value 680n
SYMBOL Opamps/TL074 416 32 R0
SYMATTR InstName U1
SYMBOL Opamps/TL074 704 -80 R0
SYMATTR InstName U2
SYMBOL Opamps/TL074 1152 -64 R0
SYMATTR InstName U3
SYMBOL diode 448 -64 R90
WINDOW 0 0 32 VBottom 2
WINDOW 3 32 32 VTop 2
SYMATTR InstName D1
SYMATTR Value 1N4148
SYMBOL diode 464 -128 R0
SYMATTR InstName D2
SYMATTR Value 1N4148
SYMBOL voltage -32 -224 R0
SYMATTR InstName V1
SYMATTR Value SINE(0 1 100)
SYMBOL voltage -176 -16 R0
SYMATTR InstName V2
SYMATTR Value 12
SYMBOL voltage -272 -16 R0
SYMATTR InstName V3
SYMATTR Value -12
SYMBOL voltage -272 -224 R0
SYMATTR InstName V4
SYMATTR Value SINE(0.5 0.5 2)
SYMBOL bv 0 -16 R0
SYMATTR InstName B1
SYMATTR Value V=V(amplitude)*V(program)
TEXT 568 144 Left 2 !.tran 10u 1
