Version 4
SHEET 1 1140 680
WIRE 160 64 112 64
WIRE 288 64 224 64
WIRE 480 64 288 64
WIRE 288 80 288 64
WIRE 720 80 672 80
WIRE 848 80 784 80
WIRE 1072 80 848 80
WIRE 848 96 848 80
WIRE -16 176 -128 176
WIRE 112 176 112 64
WIRE 112 176 64 176
WIRE 160 176 112 176
WIRE 288 176 288 160
WIRE 288 176 224 176
WIRE 368 176 288 176
WIRE 480 192 480 64
WIRE 480 192 432 192
WIRE 544 192 480 192
WIRE 672 192 672 80
WIRE 672 192 624 192
WIRE 720 192 672 192
WIRE 848 192 848 176
WIRE 848 192 784 192
WIRE 928 192 848 192
WIRE -128 208 -128 176
WIRE 112 208 112 176
WIRE 368 208 320 208
WIRE 1072 208 1072 80
WIRE 1072 208 992 208
WIRE 1136 208 1072 208
WIRE 672 224 672 192
WIRE 928 224 880 224
WIRE 320 288 320 208
WIRE 880 304 880 224
WIRE -592 336 -592 288
WIRE -464 336 -464 288
WIRE 112 336 112 288
WIRE -128 352 -128 288
WIRE 672 352 672 304
FLAG 112 336 0
FLAG 320 288 0
FLAG -128 352 0
FLAG 400 160 12V
FLAG 400 224 -12V
FLAG 672 352 0
FLAG 880 304 0
FLAG 960 176 12V
FLAG 960 240 -12V
FLAG -464 336 0
FLAG -592 336 0
FLAG -592 208 12V
FLAG -464 208 -12V
SYMBOL res 80 160 R90
WINDOW 0 0 56 VBottom 2
WINDOW 3 32 56 VTop 2
SYMATTR InstName R1
SYMATTR Value 33k
SYMBOL res 96 192 R0
SYMATTR InstName R2
SYMATTR Value 2k
SYMBOL res 272 64 R0
SYMATTR InstName R3
SYMATTR Value 200k
SYMBOL voltage -128 192 R0
WINDOW 123 24 118 Left 2
SYMATTR InstName V1
SYMATTR Value ""
SYMATTR Value2 AC 1
SYMBOL Opamps/TL074 400 128 R0
SYMATTR InstName U1
SYMBOL cap 224 160 R90
WINDOW 0 0 32 VBottom 2
WINDOW 3 32 32 VTop 2
SYMATTR InstName C1
SYMATTR Value {c}
SYMBOL cap 224 48 R90
WINDOW 0 0 32 VBottom 2
WINDOW 3 32 32 VTop 2
SYMATTR InstName C2
SYMATTR Value {c}
SYMBOL res 640 176 R90
WINDOW 0 0 56 VBottom 2
WINDOW 3 32 56 VTop 2
SYMATTR InstName R4
SYMATTR Value 20k
SYMBOL res 656 208 R0
SYMATTR InstName R5
SYMATTR Value 1.2k
SYMBOL res 832 80 R0
SYMATTR InstName R6
SYMATTR Value 120k
SYMBOL Opamps/TL074 960 144 R0
SYMATTR InstName U2
SYMBOL cap 784 176 R90
WINDOW 0 0 32 VBottom 2
WINDOW 3 32 32 VTop 2
SYMATTR InstName C3
SYMATTR Value {c}
SYMBOL cap 784 64 R90
WINDOW 0 0 32 VBottom 2
WINDOW 3 32 32 VTop 2
SYMATTR InstName C4
SYMATTR Value {c}
SYMBOL voltage -592 192 R0
SYMATTR InstName V2
SYMATTR Value 12
SYMBOL voltage -464 192 R0
SYMATTR InstName V3
SYMATTR Value -12
TEXT -656 560 Left 2 !.step param c list 0.91n 1.3n 1.8n 2.4n 3.3n 4.7n 6.8n 9.1n 13n 18n 24n 33n 47n 68n 91n 130n\n.ac dec 1000 1 100000
