Version 4
SHEET 1 1360 720
WIRE 160 144 112 144
WIRE 592 144 224 144
WIRE 624 144 592 144
WIRE 720 144 688 144
WIRE -304 240 -304 208
WIRE -112 240 -112 208
WIRE 336 240 288 240
WIRE 432 240 400 240
WIRE 496 240 432 240
WIRE 592 240 592 144
WIRE 592 240 560 240
WIRE 624 240 592 240
WIRE 720 240 720 144
WIRE 720 240 688 240
WIRE 432 256 432 240
WIRE 1072 272 1040 272
WIRE 1200 272 1136 272
WIRE 112 336 112 144
WIRE 112 336 48 336
WIRE 160 336 112 336
WIRE 288 336 288 240
WIRE 288 336 224 336
WIRE 336 336 288 336
WIRE 432 336 432 320
WIRE 432 336 400 336
WIRE 592 352 592 240
WIRE 624 352 592 352
WIRE 720 368 720 240
WIRE 720 368 688 368
WIRE 768 368 720 368
WIRE 880 368 832 368
WIRE 928 368 880 368
WIRE 1040 368 1040 272
WIRE 1040 368 992 368
WIRE 1072 368 1040 368
WIRE 48 384 48 336
WIRE 624 384 592 384
WIRE 1200 384 1200 272
WIRE 1200 384 1136 384
WIRE 1280 384 1200 384
WIRE 880 400 880 368
WIRE 1072 400 1040 400
WIRE 592 432 592 384
WIRE 1040 448 1040 400
WIRE 288 464 288 336
WIRE 336 464 288 464
WIRE 432 480 432 336
WIRE 432 480 400 480
WIRE 336 496 304 496
WIRE 880 496 880 464
WIRE -272 512 -272 464
WIRE -128 512 -128 464
WIRE 48 512 48 464
WIRE 304 544 304 496
FLAG 304 544 0
FLAG 592 432 0
FLAG 48 512 0
FLAG -128 512 0
FLAG -272 512 0
FLAG 880 496 0
FLAG 1040 448 0
FLAG -128 384 12V
FLAG -272 384 -12V
FLAG 368 512 -12V
FLAG 656 400 -12V
FLAG 1104 416 -12V
FLAG 368 448 12V
FLAG 656 336 12V
FLAG 1104 352 12V
FLAG -304 128 ampl
FLAG -304 240 0
FLAG -112 240 0
FLAG -112 128 carrier
SYMBOL res2 224 320 R90
WINDOW 0 0 32 VBottom 2
WINDOW 3 32 32 VTop 2
SYMATTR InstName R1
SYMATTR Value 10k
SYMBOL res2 400 224 R90
WINDOW 0 0 32 VBottom 2
WINDOW 3 32 32 VTop 2
SYMATTR InstName R2
SYMATTR Value 10k
SYMBOL res2 224 128 R90
WINDOW 0 0 32 VBottom 2
WINDOW 3 32 32 VTop 2
SYMATTR InstName R3
SYMATTR Value 10k
SYMBOL res2 560 224 R90
WINDOW 0 0 32 VBottom 2
WINDOW 3 32 32 VTop 2
SYMATTR InstName R4
SYMATTR Value 10k
SYMBOL res2 688 224 R90
WINDOW 0 0 32 VBottom 2
WINDOW 3 32 32 VTop 2
SYMATTR InstName R5
SYMATTR Value 10k
SYMBOL res2 832 352 R90
WINDOW 0 0 32 VBottom 2
WINDOW 3 32 32 VTop 2
SYMATTR InstName R6
SYMATTR Value 10k
SYMBOL res2 992 352 R90
WINDOW 0 0 32 VBottom 2
WINDOW 3 32 32 VTop 2
SYMATTR InstName R7
SYMATTR Value 100k
SYMBOL res2 1136 256 R90
WINDOW 0 0 32 VBottom 2
WINDOW 3 32 32 VTop 2
SYMATTR InstName R8
SYMATTR Value 100k
SYMBOL cap 688 128 R90
WINDOW 0 0 32 VBottom 2
WINDOW 3 32 32 VTop 2
SYMATTR InstName C1
SYMATTR Value 680n
SYMBOL cap 896 464 R180
WINDOW 0 24 56 Left 2
WINDOW 3 24 8 Left 2
SYMATTR InstName C2
SYMATTR Value 680n
SYMBOL Opamps/TL074 368 416 R0
SYMATTR InstName U1
SYMBOL Opamps/TL074 656 304 R0
SYMATTR InstName U2
SYMBOL Opamps/TL074 1104 320 R0
SYMATTR InstName U3
SYMBOL diode 400 320 R90
WINDOW 0 0 32 VBottom 2
WINDOW 3 32 32 VTop 2
SYMATTR InstName D1
SYMATTR Value 1N4148
SYMBOL diode 416 256 R0
SYMATTR InstName D2
SYMATTR Value 1N4148
SYMBOL voltage -112 112 R0
SYMATTR InstName V1
SYMATTR Value SINE(0 1 1000)
SYMBOL voltage -128 368 R0
SYMATTR InstName V2
SYMATTR Value 12
SYMBOL voltage -272 368 R0
SYMATTR InstName V3
SYMATTR Value -12
SYMBOL voltage -304 112 R0
SYMATTR InstName V4
SYMATTR Value SINE(0.5 0.5 2)
SYMBOL bv 48 368 R0
SYMATTR InstName B1
SYMATTR Value V=V(ampl)*V(carrier)
TEXT 408 648 Left 2 !.tran 10u 5
